<routes>
        <vType id="923" accel="3" decel="3" sigma="0.5" length="5" minGap="2.5" maxSpeed="60" guiShape="passenger"/>
        <vType id="924" accel="3" decel="3" sigma="0.5" length="10" minGap="2.5" maxSpeed="60" guiShape="bus"/>

        <route id="route1" edges="1to0 0to2" />
        <route id="route2" edges="2to0 0to1" />
        <route id="route3" edges="3to0 0to4" />
        <route id="route4" edges="4to0 0to3" />
        <route id="route5" edges="4to0 0to2" />
        
        
    <vehicle id="0" type="923" route="route2" depart="0" color="0,0,1"/>
    <vehicle id="1" type="924" route="route3" depart="1" color="1,0,0"/>
    <vehicle id="2" type="924" route="route3" depart="2" color="1,0,0"/>
    <vehicle id="3" type="923" route="route5" depart="3" color="1,1,0"/>
    <vehicle id="4" type="923" route="route2" depart="5" color="0,0,1"/>
    <vehicle id="5" type="923" route="route2" depart="8" color="0,0,1"/>
    <vehicle id="6" type="923" route="route2" depart="9" color="0,0,1"/>
    <vehicle id="7" type="924" route="route3" depart="13" color="1,0,0"/>
    <vehicle id="8" type="923" route="route1" depart="18" color="0,1,0"/>
    <vehicle id="9" type="923" route="route1" depart="20" color="0,1,0"/>
    <vehicle id="10" type="923" route="route2" depart="21" color="0,0,1"/>
    <vehicle id="11" type="923" route="route5" depart="24" color="1,1,0"/>
    <vehicle id="12" type="923" route="route2" depart="25" color="0,0,1"/>
    <vehicle id="13" type="923" route="route2" depart="26" color="0,0,1"/>
    <vehicle id="14" type="923" route="route2" depart="27" color="0,0,1"/>
    <vehicle id="15" type="923" route="route1" depart="32" color="0,1,0"/>
    <vehicle id="16" type="923" route="route1" depart="33" color="0,1,0"/>
    <vehicle id="17" type="923" route="route2" depart="35" color="0,0,1"/>
    <vehicle id="18" type="924" route="route3" depart="39" color="1,0,0"/>
    <vehicle id="19" type="924" route="route3" depart="41" color="1,0,0"/>
    <vehicle id="20" type="923" route="route1" depart="46" color="0,1,0"/>
    <vehicle id="21" type="923" route="route1" depart="47" color="0,1,0"/>
    <vehicle id="22" type="924" route="route3" depart="50" color="1,0,0"/>
    <vehicle id="23" type="923" route="route2" depart="51" color="0,0,1"/>
    <vehicle id="24" type="923" route="route5" depart="53" color="1,1,0"/>
    <vehicle id="25" type="923" route="route1" depart="55" color="0,1,0"/>
    <vehicle id="26" type="923" route="route2" depart="55" color="0,0,1"/>
    <vehicle id="27" type="923" route="route1" depart="58" color="0,1,0"/>
    <vehicle id="28" type="924" route="route3" depart="59" color="1,0,0"/>
    <vehicle id="29" type="924" route="route4" depart="59" color="1,1,0"/>
    <vehicle id="30" type="924" route="route3" depart="68" color="1,0,0"/>
    <vehicle id="31" type="924" route="route4" depart="73" color="1,1,0"/>
    <vehicle id="32" type="923" route="route1" depart="75" color="0,1,0"/>
    <vehicle id="33" type="923" route="route5" depart="78" color="1,1,0"/>
    <vehicle id="34" type="923" route="route2" depart="81" color="0,0,1"/>
    <vehicle id="35" type="923" route="route1" depart="83" color="0,1,0"/>
    <vehicle id="36" type="924" route="route3" depart="85" color="1,0,0"/>
    <vehicle id="37" type="923" route="route1" depart="86" color="0,1,0"/>
    <vehicle id="38" type="923" route="route1" depart="87" color="0,1,0"/>
    <vehicle id="39" type="923" route="route1" depart="92" color="0,1,0"/>
    <vehicle id="40" type="923" route="route2" depart="96" color="0,0,1"/>
    <vehicle id="41" type="924" route="route4" depart="98" color="1,1,0"/>
    <vehicle id="42" type="923" route="route2" depart="100" color="0,0,1"/>
    <vehicle id="43" type="924" route="route4" depart="101" color="1,1,0"/>
    <vehicle id="44" type="924" route="route3" depart="103" color="1,0,0"/>
    <vehicle id="45" type="924" route="route4" depart="103" color="1,1,0"/>
    <vehicle id="46" type="924" route="route4" depart="105" color="1,1,0"/>
    <vehicle id="47" type="924" route="route4" depart="108" color="1,1,0"/>
    <vehicle id="48" type="923" route="route2" depart="113" color="0,0,1"/>
    <vehicle id="49" type="924" route="route4" depart="116" color="1,1,0"/>
    <vehicle id="50" type="924" route="route4" depart="119" color="1,1,0"/>
    <vehicle id="51" type="923" route="route1" depart="120" color="0,1,0"/>
    <vehicle id="52" type="924" route="route3" depart="127" color="1,0,0"/>
    <vehicle id="53" type="923" route="route2" depart="130" color="0,0,1"/>
    <vehicle id="54" type="923" route="route2" depart="131" color="0,0,1"/>
    <vehicle id="55" type="924" route="route4" depart="131" color="1,1,0"/>
    <vehicle id="56" type="924" route="route4" depart="136" color="1,1,0"/>
    <vehicle id="57" type="923" route="route5" depart="136" color="1,1,0"/>
    <vehicle id="58" type="924" route="route4" depart="140" color="1,1,0"/>
    <vehicle id="59" type="923" route="route1" depart="143" color="0,1,0"/>
    <vehicle id="60" type="923" route="route2" depart="143" color="0,0,1"/>
    <vehicle id="61" type="923" route="route1" depart="144" color="0,1,0"/>
    <vehicle id="62" type="924" route="route4" depart="145" color="1,1,0"/>
    <vehicle id="63" type="923" route="route1" depart="155" color="0,1,0"/>
    <vehicle id="64" type="924" route="route3" depart="163" color="1,0,0"/>
    <vehicle id="65" type="923" route="route2" depart="165" color="0,0,1"/>
    <vehicle id="66" type="923" route="route2" depart="170" color="0,0,1"/>
    <vehicle id="67" type="924" route="route3" depart="170" color="1,0,0"/>
    <vehicle id="68" type="924" route="route4" depart="174" color="1,1,0"/>
    <vehicle id="69" type="924" route="route3" depart="176" color="1,0,0"/>
    <vehicle id="70" type="924" route="route4" depart="181" color="1,1,0"/>
    <vehicle id="71" type="923" route="route1" depart="189" color="0,1,0"/>
    <vehicle id="72" type="923" route="route2" depart="191" color="0,0,1"/>
    <vehicle id="73" type="923" route="route2" depart="193" color="0,0,1"/>
    <vehicle id="74" type="923" route="route2" depart="194" color="0,0,1"/>
    <vehicle id="75" type="923" route="route1" depart="196" color="0,1,0"/>
    <vehicle id="76" type="923" route="route2" depart="198" color="0,0,1"/>
    <vehicle id="77" type="923" route="route1" depart="199" color="0,1,0"/>
    <vehicle id="78" type="923" route="route1" depart="200" color="0,1,0"/>
    <vehicle id="79" type="924" route="route4" depart="202" color="1,1,0"/>
    <vehicle id="80" type="924" route="route4" depart="203" color="1,1,0"/>
    <vehicle id="81" type="923" route="route2" depart="205" color="0,0,1"/>
    <vehicle id="82" type="924" route="route4" depart="206" color="1,1,0"/>
    <vehicle id="83" type="923" route="route2" depart="209" color="0,0,1"/>
    <vehicle id="84" type="923" route="route1" depart="211" color="0,1,0"/>
    <vehicle id="85" type="923" route="route2" depart="212" color="0,0,1"/>
    <vehicle id="86" type="924" route="route3" depart="212" color="1,0,0"/>
    <vehicle id="87" type="923" route="route1" depart="217" color="0,1,0"/>
    <vehicle id="88" type="923" route="route2" depart="218" color="0,0,1"/>
    <vehicle id="89" type="923" route="route1" depart="225" color="0,1,0"/>
    <vehicle id="90" type="924" route="route4" depart="226" color="1,1,0"/>
    <vehicle id="91" type="924" route="route4" depart="229" color="1,1,0"/>
    <vehicle id="92" type="923" route="route1" depart="233" color="0,1,0"/>
    <vehicle id="93" type="924" route="route4" depart="233" color="1,1,0"/>
    <vehicle id="94" type="923" route="route5" depart="234" color="1,1,0"/>
    <vehicle id="95" type="924" route="route3" depart="236" color="1,0,0"/>
    <vehicle id="96" type="923" route="route1" depart="237" color="0,1,0"/>
    <vehicle id="97" type="924" route="route4" depart="238" color="1,1,0"/>
    <vehicle id="98" type="923" route="route1" depart="242" color="0,1,0"/>
    <vehicle id="99" type="923" route="route2" depart="247" color="0,0,1"/>
    <vehicle id="100" type="923" route="route1" depart="248" color="0,1,0"/>
    <vehicle id="101" type="923" route="route2" depart="249" color="0,0,1"/>
    <vehicle id="102" type="923" route="route2" depart="252" color="0,0,1"/>
    <vehicle id="103" type="923" route="route1" depart="256" color="0,1,0"/>
    <vehicle id="104" type="923" route="route2" depart="256" color="0,0,1"/>
    <vehicle id="105" type="923" route="route2" depart="263" color="0,0,1"/>
    <vehicle id="106" type="924" route="route3" depart="264" color="1,0,0"/>
    <vehicle id="107" type="923" route="route1" depart="272" color="0,1,0"/>
    <vehicle id="108" type="924" route="route4" depart="274" color="1,1,0"/>
    <vehicle id="109" type="923" route="route2" depart="278" color="0,0,1"/>
    <vehicle id="110" type="924" route="route3" depart="278" color="1,0,0"/>
    <vehicle id="111" type="923" route="route2" depart="280" color="0,0,1"/>
    <vehicle id="112" type="923" route="route1" depart="281" color="0,1,0"/>
    <vehicle id="113" type="924" route="route4" depart="281" color="1,1,0"/>
    <vehicle id="114" type="924" route="route3" depart="283" color="1,0,0"/>
    <vehicle id="115" type="924" route="route3" depart="287" color="1,0,0"/>
    <vehicle id="116" type="923" route="route2" depart="289" color="0,0,1"/>
    <vehicle id="117" type="923" route="route1" depart="290" color="0,1,0"/>
    <vehicle id="118" type="924" route="route3" depart="290" color="1,0,0"/>
    <vehicle id="119" type="924" route="route3" depart="295" color="1,0,0"/>
    <vehicle id="120" type="924" route="route3" depart="296" color="1,0,0"/>
    <vehicle id="121" type="923" route="route2" depart="299" color="0,0,1"/>
    <vehicle id="122" type="923" route="route1" depart="301" color="0,1,0"/>
    <vehicle id="123" type="923" route="route2" depart="301" color="0,0,1"/>
    <vehicle id="124" type="923" route="route2" depart="304" color="0,0,1"/>
    <vehicle id="125" type="924" route="route4" depart="307" color="1,1,0"/>
    <vehicle id="126" type="924" route="route4" depart="308" color="1,1,0"/>
    <vehicle id="127" type="923" route="route2" depart="311" color="0,0,1"/>
    <vehicle id="128" type="924" route="route3" depart="312" color="1,0,0"/>
    <vehicle id="129" type="924" route="route3" depart="316" color="1,0,0"/>
    <vehicle id="130" type="924" route="route4" depart="321" color="1,1,0"/>
    <vehicle id="131" type="923" route="route1" depart="325" color="0,1,0"/>
    <vehicle id="132" type="924" route="route3" depart="331" color="1,0,0"/>
    <vehicle id="133" type="924" route="route4" depart="332" color="1,1,0"/>
    <vehicle id="134" type="923" route="route1" depart="337" color="0,1,0"/>
    <vehicle id="135" type="923" route="route1" depart="339" color="0,1,0"/>
    <vehicle id="136" type="923" route="route2" depart="344" color="0,0,1"/>
    <vehicle id="137" type="923" route="route1" depart="347" color="0,1,0"/>
    <vehicle id="138" type="924" route="route4" depart="347" color="1,1,0"/>
    <vehicle id="139" type="924" route="route3" depart="349" color="1,0,0"/>
    <vehicle id="140" type="924" route="route3" depart="360" color="1,0,0"/>
    <vehicle id="141" type="923" route="route1" depart="361" color="0,1,0"/>
    <vehicle id="142" type="924" route="route3" depart="361" color="1,0,0"/>
    <vehicle id="143" type="923" route="route2" depart="367" color="0,0,1"/>
    <vehicle id="144" type="924" route="route3" depart="372" color="1,0,0"/>
    <vehicle id="145" type="924" route="route3" depart="375" color="1,0,0"/>
    <vehicle id="146" type="923" route="route1" depart="377" color="0,1,0"/>
    <vehicle id="147" type="924" route="route4" depart="380" color="1,1,0"/>
    <vehicle id="148" type="923" route="route2" depart="381" color="0,0,1"/>
    <vehicle id="149" type="924" route="route4" depart="381" color="1,1,0"/>
    <vehicle id="150" type="923" route="route1" depart="383" color="0,1,0"/>
    <vehicle id="151" type="924" route="route3" depart="386" color="1,0,0"/>
    <vehicle id="152" type="924" route="route3" depart="387" color="1,0,0"/>
    <vehicle id="153" type="923" route="route2" depart="392" color="0,0,1"/>
    <vehicle id="154" type="924" route="route3" depart="392" color="1,0,0"/>
    <vehicle id="155" type="924" route="route4" depart="395" color="1,1,0"/>
    <vehicle id="156" type="923" route="route1" depart="396" color="0,1,0"/>
    <vehicle id="157" type="923" route="route2" depart="396" color="0,0,1"/>
    <vehicle id="158" type="923" route="route1" depart="398" color="0,1,0"/>
    <vehicle id="159" type="923" route="route1" depart="407" color="0,1,0"/>
    <vehicle id="160" type="923" route="route1" depart="410" color="0,1,0"/>
    <vehicle id="161" type="924" route="route3" depart="420" color="1,0,0"/>
    <vehicle id="162" type="924" route="route4" depart="420" color="1,1,0"/>
    <vehicle id="163" type="924" route="route3" depart="422" color="1,0,0"/>
    <vehicle id="164" type="923" route="route1" depart="424" color="0,1,0"/>
    <vehicle id="165" type="924" route="route3" depart="424" color="1,0,0"/>
    <vehicle id="166" type="923" route="route2" depart="425" color="0,0,1"/>
    <vehicle id="167" type="923" route="route2" depart="426" color="0,0,1"/>
    <vehicle id="168" type="924" route="route3" depart="430" color="1,0,0"/>
    <vehicle id="169" type="924" route="route4" depart="430" color="1,1,0"/>
    <vehicle id="170" type="923" route="route1" depart="432" color="0,1,0"/>
    <vehicle id="171" type="924" route="route3" depart="432" color="1,0,0"/>
    <vehicle id="172" type="924" route="route3" depart="433" color="1,0,0"/>
    <vehicle id="173" type="924" route="route4" depart="433" color="1,1,0"/>
    <vehicle id="174" type="924" route="route3" depart="434" color="1,0,0"/>
    <vehicle id="175" type="923" route="route1" depart="436" color="0,1,0"/>
    <vehicle id="176" type="924" route="route4" depart="438" color="1,1,0"/>
    <vehicle id="177" type="923" route="route2" depart="440" color="0,0,1"/>
    <vehicle id="178" type="923" route="route1" depart="442" color="0,1,0"/>
    <vehicle id="179" type="923" route="route1" depart="444" color="0,1,0"/>
    <vehicle id="180" type="923" route="route2" depart="444" color="0,0,1"/>
    <vehicle id="181" type="923" route="route1" depart="446" color="0,1,0"/>
    <vehicle id="182" type="924" route="route4" depart="447" color="1,1,0"/>
    <vehicle id="183" type="924" route="route4" depart="449" color="1,1,0"/>
    <vehicle id="184" type="924" route="route3" depart="450" color="1,0,0"/>
    <vehicle id="185" type="923" route="route1" depart="461" color="0,1,0"/>
    <vehicle id="186" type="924" route="route4" depart="463" color="1,1,0"/>
    <vehicle id="187" type="924" route="route4" depart="464" color="1,1,0"/>
    <vehicle id="188" type="923" route="route1" depart="466" color="0,1,0"/>
    <vehicle id="189" type="924" route="route3" depart="468" color="1,0,0"/>
    <vehicle id="190" type="923" route="route2" depart="469" color="0,0,1"/>
    <vehicle id="191" type="923" route="route1" depart="475" color="0,1,0"/>
    <vehicle id="192" type="923" route="route1" depart="477" color="0,1,0"/>
    <vehicle id="193" type="923" route="route2" depart="481" color="0,0,1"/>
    <vehicle id="194" type="923" route="route2" depart="485" color="0,0,1"/>
    <vehicle id="195" type="923" route="route2" depart="487" color="0,0,1"/>
    <vehicle id="196" type="924" route="route3" depart="487" color="1,0,0"/>
    <vehicle id="197" type="924" route="route4" depart="490" color="1,1,0"/>
    <vehicle id="198" type="924" route="route4" depart="495" color="1,1,0"/>
    <vehicle id="199" type="923" route="route2" depart="503" color="0,0,1"/>
    <vehicle id="200" type="924" route="route4" depart="504" color="1,1,0"/>
    <vehicle id="201" type="923" route="route2" depart="507" color="0,0,1"/>
    <vehicle id="202" type="924" route="route4" depart="508" color="1,1,0"/>
    <vehicle id="203" type="924" route="route4" depart="512" color="1,1,0"/>
    <vehicle id="204" type="924" route="route4" depart="513" color="1,1,0"/>
    <vehicle id="205" type="924" route="route3" depart="517" color="1,0,0"/>
    <vehicle id="206" type="923" route="route2" depart="519" color="0,0,1"/>
    <vehicle id="207" type="923" route="route1" depart="521" color="0,1,0"/>
    <vehicle id="208" type="924" route="route4" depart="523" color="1,1,0"/>
    <vehicle id="209" type="924" route="route3" depart="527" color="1,0,0"/>
    <vehicle id="210" type="924" route="route4" depart="527" color="1,1,0"/>
    <vehicle id="211" type="923" route="route1" depart="528" color="0,1,0"/>
    <vehicle id="212" type="923" route="route2" depart="528" color="0,0,1"/>
    <vehicle id="213" type="924" route="route4" depart="529" color="1,1,0"/>
    <vehicle id="214" type="923" route="route2" depart="532" color="0,0,1"/>
    <vehicle id="215" type="923" route="route1" depart="533" color="0,1,0"/>
    <vehicle id="216" type="923" route="route2" depart="533" color="0,0,1"/>
    <vehicle id="217" type="924" route="route3" depart="537" color="1,0,0"/>
    <vehicle id="218" type="923" route="route1" depart="538" color="0,1,0"/>
    <vehicle id="219" type="924" route="route4" depart="538" color="1,1,0"/>
    <vehicle id="220" type="923" route="route1" depart="540" color="0,1,0"/>
    <vehicle id="221" type="923" route="route1" depart="541" color="0,1,0"/>
    <vehicle id="222" type="923" route="route2" depart="544" color="0,0,1"/>
    <vehicle id="223" type="923" route="route1" depart="547" color="0,1,0"/>
    <vehicle id="224" type="924" route="route4" depart="549" color="1,1,0"/>
    <vehicle id="225" type="923" route="route1" depart="551" color="0,1,0"/>
    <vehicle id="226" type="924" route="route4" depart="552" color="1,1,0"/>
    <vehicle id="227" type="923" route="route2" depart="553" color="0,0,1"/>
    <vehicle id="228" type="924" route="route4" depart="554" color="1,1,0"/>
    <vehicle id="229" type="924" route="route3" depart="555" color="1,0,0"/>
    <vehicle id="230" type="924" route="route3" depart="561" color="1,0,0"/>
    <vehicle id="231" type="923" route="route1" depart="562" color="0,1,0"/>
    <vehicle id="232" type="924" route="route3" depart="563" color="1,0,0"/>
    <vehicle id="233" type="923" route="route1" depart="565" color="0,1,0"/>
    <vehicle id="234" type="923" route="route2" depart="567" color="0,0,1"/>
    <vehicle id="235" type="924" route="route3" depart="567" color="1,0,0"/>
    <vehicle id="236" type="923" route="route1" depart="570" color="0,1,0"/>
    <vehicle id="237" type="924" route="route3" depart="571" color="1,0,0"/>
    <vehicle id="238" type="924" route="route4" depart="572" color="1,1,0"/>
    <vehicle id="239" type="923" route="route1" depart="577" color="0,1,0"/>
    <vehicle id="240" type="923" route="route2" depart="578" color="0,0,1"/>
    <vehicle id="241" type="923" route="route2" depart="579" color="0,0,1"/>
    <vehicle id="242" type="923" route="route1" depart="584" color="0,1,0"/>
    <vehicle id="243" type="923" route="route5" depart="584" color="1,1,0"/>
    <vehicle id="244" type="924" route="route3" depart="586" color="1,0,0"/>
    <vehicle id="245" type="924" route="route3" depart="593" color="1,0,0"/>
    <vehicle id="246" type="923" route="route1" depart="596" color="0,1,0"/>
    <vehicle id="247" type="924" route="route3" depart="597" color="1,0,0"/>
    <vehicle id="248" type="923" route="route1" depart="598" color="0,1,0"/>
    <vehicle id="249" type="923" route="route1" depart="603" color="0,1,0"/>
    <vehicle id="250" type="924" route="route4" depart="606" color="1,1,0"/>
    <vehicle id="251" type="924" route="route4" depart="608" color="1,1,0"/>
    <vehicle id="252" type="923" route="route2" depart="609" color="0,0,1"/>
    <vehicle id="253" type="924" route="route3" depart="612" color="1,0,0"/>
    <vehicle id="254" type="923" route="route1" depart="613" color="0,1,0"/>
    <vehicle id="255" type="924" route="route4" depart="620" color="1,1,0"/>
    <vehicle id="256" type="923" route="route2" depart="624" color="0,0,1"/>
    <vehicle id="257" type="923" route="route2" depart="628" color="0,0,1"/>
    <vehicle id="258" type="923" route="route1" depart="634" color="0,1,0"/>
    <vehicle id="259" type="924" route="route4" depart="636" color="1,1,0"/>
    <vehicle id="260" type="924" route="route3" depart="641" color="1,0,0"/>
    <vehicle id="261" type="923" route="route2" depart="642" color="0,0,1"/>
    <vehicle id="262" type="923" route="route1" depart="645" color="0,1,0"/>
    <vehicle id="263" type="923" route="route2" depart="651" color="0,0,1"/>
    <vehicle id="264" type="923" route="route2" depart="654" color="0,0,1"/>
    <vehicle id="265" type="924" route="route3" depart="658" color="1,0,0"/>
    <vehicle id="266" type="924" route="route4" depart="659" color="1,1,0"/>
    <vehicle id="267" type="924" route="route4" depart="662" color="1,1,0"/>
    <vehicle id="268" type="923" route="route1" depart="664" color="0,1,0"/>
    <vehicle id="269" type="923" route="route2" depart="665" color="0,0,1"/>
    <vehicle id="270" type="923" route="route1" depart="673" color="0,1,0"/>
    <vehicle id="271" type="924" route="route4" depart="674" color="1,1,0"/>
    <vehicle id="272" type="923" route="route2" depart="678" color="0,0,1"/>
    <vehicle id="273" type="923" route="route2" depart="680" color="0,0,1"/>
    <vehicle id="274" type="923" route="route2" depart="681" color="0,0,1"/>
    <vehicle id="275" type="923" route="route1" depart="683" color="0,1,0"/>
    <vehicle id="276" type="923" route="route2" depart="684" color="0,0,1"/>
    <vehicle id="277" type="924" route="route4" depart="684" color="1,1,0"/>
    <vehicle id="278" type="923" route="route1" depart="686" color="0,1,0"/>
    <vehicle id="279" type="923" route="route2" depart="690" color="0,0,1"/>
    <vehicle id="280" type="923" route="route2" depart="692" color="0,0,1"/>
    <vehicle id="281" type="923" route="route2" depart="698" color="0,0,1"/>
    <vehicle id="282" type="924" route="route3" depart="699" color="1,0,0"/>
    <vehicle id="283" type="923" route="route2" depart="700" color="0,0,1"/>
    <vehicle id="284" type="923" route="route2" depart="702" color="0,0,1"/>
    <vehicle id="285" type="924" route="route3" depart="703" color="1,0,0"/>
    <vehicle id="286" type="924" route="route3" depart="705" color="1,0,0"/>
    <vehicle id="287" type="923" route="route1" depart="707" color="0,1,0"/>
    <vehicle id="288" type="923" route="route2" depart="727" color="0,0,1"/>
    <vehicle id="289" type="923" route="route1" depart="731" color="0,1,0"/>
    <vehicle id="290" type="923" route="route2" depart="737" color="0,0,1"/>
    <vehicle id="291" type="924" route="route3" depart="739" color="1,0,0"/>
    <vehicle id="292" type="923" route="route2" depart="740" color="0,0,1"/>
    <vehicle id="293" type="924" route="route3" depart="742" color="1,0,0"/>
    <vehicle id="294" type="923" route="route2" depart="746" color="0,0,1"/>
    <vehicle id="295" type="923" route="route5" depart="747" color="1,1,0"/>
    <vehicle id="296" type="923" route="route1" depart="748" color="0,1,0"/>
    <vehicle id="297" type="923" route="route1" depart="749" color="0,1,0"/>
    <vehicle id="298" type="923" route="route2" depart="751" color="0,0,1"/>
    <vehicle id="299" type="924" route="route3" depart="751" color="1,0,0"/>
    <vehicle id="300" type="923" route="route2" depart="753" color="0,0,1"/>
    <vehicle id="301" type="923" route="route2" depart="755" color="0,0,1"/>
    <vehicle id="302" type="923" route="route2" depart="760" color="0,0,1"/>
    <vehicle id="303" type="923" route="route1" depart="765" color="0,1,0"/>
    <vehicle id="304" type="923" route="route2" depart="765" color="0,0,1"/>
    <vehicle id="305" type="923" route="route5" depart="768" color="1,1,0"/>
    <vehicle id="306" type="923" route="route1" depart="773" color="0,1,0"/>
    <vehicle id="307" type="923" route="route2" depart="773" color="0,0,1"/>
    <vehicle id="308" type="924" route="route3" depart="773" color="1,0,0"/>
    <vehicle id="309" type="923" route="route2" depart="781" color="0,0,1"/>
    <vehicle id="310" type="924" route="route3" depart="782" color="1,0,0"/>
    <vehicle id="311" type="924" route="route4" depart="787" color="1,1,0"/>
    <vehicle id="312" type="924" route="route4" depart="790" color="1,1,0"/>
    <vehicle id="313" type="924" route="route4" depart="791" color="1,1,0"/>
    <vehicle id="314" type="923" route="route1" depart="792" color="0,1,0"/>
    <vehicle id="315" type="923" route="route2" depart="793" color="0,0,1"/>
    <vehicle id="316" type="923" route="route1" depart="794" color="0,1,0"/>
    <vehicle id="317" type="924" route="route3" depart="799" color="1,0,0"/>
    <vehicle id="318" type="923" route="route1" depart="800" color="0,1,0"/>
    <vehicle id="319" type="923" route="route1" depart="802" color="0,1,0"/>
    <vehicle id="320" type="923" route="route1" depart="804" color="0,1,0"/>
    <vehicle id="321" type="924" route="route4" depart="806" color="1,1,0"/>
    <vehicle id="322" type="923" route="route2" depart="814" color="0,0,1"/>
    <vehicle id="323" type="923" route="route2" depart="815" color="0,0,1"/>
    <vehicle id="324" type="924" route="route4" depart="815" color="1,1,0"/>
    <vehicle id="325" type="923" route="route2" depart="820" color="0,0,1"/>
    <vehicle id="326" type="923" route="route1" depart="822" color="0,1,0"/>
    <vehicle id="327" type="923" route="route2" depart="822" color="0,0,1"/>
    <vehicle id="328" type="923" route="route1" depart="825" color="0,1,0"/>
    <vehicle id="329" type="924" route="route3" depart="828" color="1,0,0"/>
    <vehicle id="330" type="924" route="route3" depart="830" color="1,0,0"/>
    <vehicle id="331" type="923" route="route1" depart="831" color="0,1,0"/>
    <vehicle id="332" type="924" route="route4" depart="831" color="1,1,0"/>
    <vehicle id="333" type="923" route="route2" depart="835" color="0,0,1"/>
    <vehicle id="334" type="924" route="route4" depart="836" color="1,1,0"/>
    <vehicle id="335" type="923" route="route2" depart="839" color="0,0,1"/>
    <vehicle id="336" type="924" route="route4" depart="841" color="1,1,0"/>
    <vehicle id="337" type="923" route="route1" depart="850" color="0,1,0"/>
    <vehicle id="338" type="923" route="route1" depart="852" color="0,1,0"/>
    <vehicle id="339" type="923" route="route2" depart="861" color="0,0,1"/>
    <vehicle id="340" type="924" route="route3" depart="861" color="1,0,0"/>
    <vehicle id="341" type="923" route="route1" depart="862" color="0,1,0"/>
    <vehicle id="342" type="924" route="route4" depart="862" color="1,1,0"/>
    <vehicle id="343" type="923" route="route1" depart="870" color="0,1,0"/>
    <vehicle id="344" type="923" route="route1" depart="871" color="0,1,0"/>
    <vehicle id="345" type="923" route="route5" depart="871" color="1,1,0"/>
    <vehicle id="346" type="924" route="route4" depart="872" color="1,1,0"/>
    <vehicle id="347" type="923" route="route2" depart="878" color="0,0,1"/>
    <vehicle id="348" type="924" route="route3" depart="878" color="1,0,0"/>
    <vehicle id="349" type="923" route="route1" depart="879" color="0,1,0"/>
    <vehicle id="350" type="923" route="route2" depart="882" color="0,0,1"/>
    <vehicle id="351" type="924" route="route4" depart="882" color="1,1,0"/>
    <vehicle id="352" type="923" route="route1" depart="885" color="0,1,0"/>
    <vehicle id="353" type="923" route="route1" depart="887" color="0,1,0"/>
    <vehicle id="354" type="923" route="route2" depart="890" color="0,0,1"/>
    <vehicle id="355" type="924" route="route3" depart="890" color="1,0,0"/>
    <vehicle id="356" type="924" route="route3" depart="891" color="1,0,0"/>
    <vehicle id="357" type="924" route="route3" depart="898" color="1,0,0"/>
    <vehicle id="358" type="924" route="route3" depart="899" color="1,0,0"/>
    <vehicle id="359" type="923" route="route2" depart="900" color="0,0,1"/>
    <vehicle id="360" type="923" route="route1" depart="903" color="0,1,0"/>
    <vehicle id="361" type="924" route="route3" depart="903" color="1,0,0"/>
    <vehicle id="362" type="924" route="route3" depart="906" color="1,0,0"/>
    <vehicle id="363" type="924" route="route3" depart="907" color="1,0,0"/>
    <vehicle id="364" type="924" route="route3" depart="909" color="1,0,0"/>
    <vehicle id="365" type="924" route="route4" depart="909" color="1,1,0"/>
    <vehicle id="366" type="923" route="route2" depart="920" color="0,0,1"/>
    <vehicle id="367" type="923" route="route2" depart="923" color="0,0,1"/>
    <vehicle id="368" type="923" route="route2" depart="926" color="0,0,1"/>
    <vehicle id="369" type="924" route="route3" depart="926" color="1,0,0"/>
    <vehicle id="370" type="924" route="route3" depart="928" color="1,0,0"/>
    <vehicle id="371" type="923" route="route2" depart="929" color="0,0,1"/>
    <vehicle id="372" type="923" route="route2" depart="930" color="0,0,1"/>
    <vehicle id="373" type="923" route="route2" depart="932" color="0,0,1"/>
    <vehicle id="374" type="924" route="route4" depart="932" color="1,1,0"/>
    <vehicle id="375" type="923" route="route1" depart="933" color="0,1,0"/>
    <vehicle id="376" type="924" route="route3" depart="935" color="1,0,0"/>
    <vehicle id="377" type="923" route="route2" depart="936" color="0,0,1"/>
    <vehicle id="378" type="924" route="route3" depart="937" color="1,0,0"/>
    <vehicle id="379" type="923" route="route1" depart="940" color="0,1,0"/>
    <vehicle id="380" type="923" route="route2" depart="940" color="0,0,1"/>
    <vehicle id="381" type="923" route="route2" depart="941" color="0,0,1"/>
    <vehicle id="382" type="923" route="route1" depart="942" color="0,1,0"/>
    <vehicle id="383" type="923" route="route1" depart="944" color="0,1,0"/>
    <vehicle id="384" type="924" route="route4" depart="944" color="1,1,0"/>