<?xml version="1.0" encoding="iso-8859-1"?>
<connections xmlns:xsi="http://www.w3.org/2001/XMLSchema-instance" xsi:noNamespaceSchemaLocation="http://sumo.dlr.de/xsd/connections_file.xsd">

	<connection from="1to0" to="0to2" fromLane="0" toLane="0"/>
	<connection from="1to0" to="0to4" fromLane="1" toLane="1"/>

	<connection from="2to0" to="0to1" fromLane="0" toLane="0"/>
	<connection from="2to0" to="0to3" fromLane="1" toLane="1"/>

	<connection from="3to0" to="0to4" fromLane="0" toLane="0"/>
	<connection from="3to0" to="0to1" fromLane="1" toLane="1"/>

	<connection from="4to0" to="0to3" fromLane="0" toLane="0"/>
	<connection from="4to0" to="0to2" fromLane="1" toLane="1"/>
</connections>