<?xml version="1.0" encoding="UTF-8"?>
<edges xmlns:xsi="http://www.w3.org/2001/XMLSchema-instance" xsi:noNamespaceSchemaLocation="http://sumo.dlr.de/xsd/edges_file.xsd">
   

   <edge id="1to0" from="1" to="0"  numLanes="2" speed="60"/>
   <edge id="0to2" from="0" to="2"  numLanes="2" speed="60"/>
   <edge id="2to0" from="2" to="0"  numLanes="2" speed="60"/>
   <edge id="0to1" from="0" to="1"  numLanes="2" speed="60"/>

   <edge id="3to0" from="3" to="0"  numLanes="2" speed="60"/>
   <edge id="0to4" from="0" to="4"  numLanes="2" speed="60"/>
   <edge id="4to0" from="4" to="0"  numLanes="2" speed="60"/>
   <edge id="0to3" from="0" to="3"  numLanes="2" speed="60"/>


</edges>
